5793
 OpenBabel07142518313D

 24 24  0  0  1  0  0  0  0  0999 V2000
    0.7975    1.1135   -0.2686 O   0  0  0  0  0  0  0  0  0  0  0  0
    1.4642   -2.4873    0.2986 O   0  0  0  0  0  0  0  0  0  0  0  0
   -1.3734   -2.4341   -0.1985 O   0  0  0  0  0  0  0  0  0  0  0  0
   -2.6237    0.0303    0.6130 O   0  0  0  0  0  0  0  0  0  0  0  0
   -0.3999    1.3842    1.7171 O   0  0  0  0  0  0  0  0  0  0  0  0
    3.5639    1.2500    0.0187 O   0  0  0  0  0  0  0  0  0  0  0  0
    0.7994   -1.3293   -0.2109 C   0  0  1  0  0  0  0  0  0  0  0  0
   -0.6391   -1.3015    0.3125 C   0  0  1  0  0  0  0  0  0  0  0  0
    1.5226   -0.0438    0.2033 C   0  0  1  0  0  0  0  0  0  0  0  0
   -1.3605   -0.0082   -0.0660 C   0  0  2  0  0  0  0  0  0  0  0  0
   -0.5035    1.2190    0.3094 C   0  0  3  0  0  0  0  0  0  0  0  0
    2.9318    0.0343   -0.3885 C   0  0  0  0  0  0  0  0  0  0  0  0
    0.7832   -1.4228   -1.3034 H   0  0  0  0  0  0  0  0  0  0  0  0
   -0.6443   -1.4339    1.3994 H   0  0  0  0  0  0  0  0  0  0  0  0
    1.6202    0.0189    1.2948 H   0  0  0  0  0  0  0  0  0  0  0  0
   -1.5624   -0.0013   -1.1441 H   0  0  0  0  0  0  0  0  0  0  0  0
   -0.9779    2.1245   -0.0812 H   0  0  0  0  0  0  0  0  0  0  0  0
    3.5565   -0.8011   -0.0579 H   0  0  0  0  0  0  0  0  0  0  0  0
    2.8979    0.0410   -1.4835 H   0  0  0  0  0  0  0  0  0  0  0  0
    0.8205   -3.2188    0.2746 H   0  0  0  0  0  0  0  0  0  0  0  0
   -1.4165   -2.3631   -1.1688 H   0  0  0  0  0  0  0  0  0  0  0  0
   -3.0137   -0.8643    0.5244 H   0  0  0  0  0  0  0  0  0  0  0  0
   -1.1139    0.8502    2.1128 H   0  0  0  0  0  0  0  0  0  0  0  0
    2.8716    1.9389   -0.0356 H   0  0  0  0  0  0  0  0  0  0  0  0
  1  9  1  0  0  0  0
  1 11  1  0  0  0  0
  2 20  1  0  0  0  0
  3 21  1  0  0  0  0
  4 22  1  0  0  0  0
  5 11  1  0  0  0  0
  5 23  1  0  0  0  0
  6 12  1  0  0  0  0
  6 24  1  0  0  0  0
  7  9  1  0  0  0  0
  7  8  1  0  0  0  0
  7 13  1  6  0  0  0
  7  2  1  0  0  0  0
  8  3  1  0  0  0  0
  8 10  1  0  0  0  0
  8 14  1  1  0  0  0
  9 12  1  0  0  0  0
  9 15  1  1  0  0  0
 10 11  1  0  0  0  0
 10 16  1  6  0  0  0
 10  4  1  0  0  0  0
 11 17  1  0  0  0  0
 12 18  1  0  0  0  0
 12 19  1  0  0  0  0
M  END
