297
 OpenBabel07182513333D

  5  4  0  0  0  0  0  0  0  0999 V2000
    1.0430   -0.0250   -0.0868 C   0  0  0  0  0  0  0  0  0  0  0  0
    0.6789    0.0430   -1.1142 H   0  0  0  0  0  0  0  0  0  0  0  0
    0.6789   -0.9488    0.3682 H   0  0  0  0  0  0  0  0  0  0  0  0
    0.6789    0.8309    0.4858 H   0  0  0  0  0  0  0  0  0  0  0  0
    2.1352   -0.0250   -0.0868 H   0  0  0  0  0  0  0  0  0  0  0  0
  1  2  1  0  0  0  0
  1  3  1  0  0  0  0
  1  4  1  0  0  0  0
  1  5  1  0  0  0  0
M  END
