24823
 OpenBabel07182513423D

  3  2  0  0  0  0  0  0  0  0999 V2000
    0.8718    0.0090   -0.0564 O   0  3  0  0  0  0  0  0  0  0  0  0
    0.3077    1.2162   -0.2852 O   0  5  0  0  0  0  0  0  0  0  0  0
    2.2216    0.0845   -0.0707 O   0  0  0  0  0  0  0  0  0  0  0  0
  1  2  1  0  0  0  0
  1  3  2  0  0  0  0
M  CHG  2   1   1   2  -1
M  END
